            TRNSYS - the TRaNsient SYstem Simulation program

   The Solar Energy Lab at the University of Wisconsin - Madison, USA
Le Centre Scientifique et Technique du Batiment, Sophia Antipolis, France
           Transsolar Energietechnik GmBH, Stuttgart, Germany
        Thermal Energy System Specialists, LLC, Madison Wisconsin, USA

                           Release 17.02.0004

Listing file for: "D:\Git\100_HausDerMusik\Andi\TRNSYS\160803 1508 HdM.dck"
 
*** Notice at time        :         0.000000
    Generated by Unit     : Not applicable or not available
    Generated by Type     : Not applicable or not available
    Message               : The TRNSYS Executable (TRNExe.exe) and main DLL (TRNDll.dll) are located in "C:\Trnsys17\Exe"
 

 *** Pre-Processing the TRNSYS EQUATIONs and CONSTANTs to check for fatal errors.
 
*** Warning at time       :         0.000000
    Generated by Unit     : Not applicable or not available
    Generated by Type     : Not applicable or not available
    TRNSYS Message     11 : The TRNSYS processor has reported an illegal variable name in an EQUATIONS or CONSTANTS card.  Equations or constants must not begin with END, INC, EQU or CON as these are protected codes required when reading the TRNSYS input file.  The offending variable name is listed below.
    Reported information  : COND_T_IN
 
 
*** Warning at time       :         0.000000
    Generated by Unit     : Not applicable or not available
    Generated by Type     : Not applicable or not available
    TRNSYS Message     11 : The TRNSYS processor has reported an illegal variable name in an EQUATIONS or CONSTANTS card.  Equations or constants must not begin with END, INC, EQU or CON as these are protected codes required when reading the TRNSYS input file.  The offending variable name is listed below.
    Reported information  : COND_M_DOT_KGH
 
 
*** Warning at time       :         0.000000
    Generated by Unit     : Not applicable or not available
    Generated by Type     : Not applicable or not available
    TRNSYS Message     11 : The TRNSYS processor has reported an illegal variable name in an EQUATIONS or CONSTANTS card.  Equations or constants must not begin with END, INC, EQU or CON as these are protected codes required when reading the TRNSYS input file.  The offending variable name is listed below.
    Reported information  : COND_M_DOT_LPS
 
 
*** Warning at time       :         0.000000
    Generated by Unit     : Not applicable or not available
    Generated by Type     : Not applicable or not available
    TRNSYS Message     11 : The TRNSYS processor has reported an illegal variable name in an EQUATIONS or CONSTANTS card.  Equations or constants must not begin with END, INC, EQU or CON as these are protected codes required when reading the TRNSYS input file.  The offending variable name is listed below.
    Reported information  : COND_Q_KW
 
 
*** Fatal Error at time   :         0.000000
    Generated by Unit     : Not applicable or not available
    Generated by Type     : Not applicable or not available
    TRNSYS Message     21 : The right-side of this equation is missing. The equation begins with the string in "reported information"
    Reported information  : COND_Q_KW =
 
 
*** Warning at time       :         0.000000
    Generated by Unit     : Not applicable or not available
    Generated by Type     : Not applicable or not available
    TRNSYS Message     87 : The TRNSYS Processor recognized the keyword VARIANT after the UNIT-TYPE statement, but no number was recognized.
    Reported information  : Not available
 


*********************************************************************************************************
The Following UNIT Numbers, TYPE Numbers, and Logical Units Were Used in the Supplied TRNSYS Input File: 
                                                         4
                                                         6
                                                         9


*********************************************************************************************************
Total TRNSYS Calculation Time:                          0.0700 Seconds
