            TRNSYS - the TRaNsient SYstem Simulation program

   The Solar Energy Lab at the University of Wisconsin - Madison, USA
Le Centre Scientifique et Technique du Batiment, Sophia Antipolis, France
           Transsolar Energietechnik GmBH, Stuttgart, Germany
        Thermal Energy System Specialists, LLC, Madison Wisconsin, USA

                           Release 17.02.0004

Simulation log for: "D:\Git\100_HausDerMusik\Andi\TRNSYS\160803 1740 HdM.dck"
 
*** Notice at time        :         0.000000
    Generated by Unit     : Not applicable or not available
    Generated by Type     : Not applicable or not available
    Message               : The TRNSYS Executable (TRNExe.exe) and main DLL (TRNDll.dll) are located in "C:\Trnsys17\Exe"
 
*** Fatal Error at time   :         0.000000
    Generated by Unit     : Not applicable or not available
    Generated by Type     : Not applicable or not available
    TRNSYS Message     20 : The referenced variable used in this equation has not been defined in the TRNSYS input file. The equation begins with the string in "reported information"
    Reported information  : COP =  w(ACTUAL_LOAD
 
*** Simulation stopped with errors
    Total Notices         :         1
    Total Warnings        :         0
    Total Fatal Errors    :         1
