            TRNSYS - the TRaNsient SYstem Simulation program

   The Solar Energy Lab at the University of Wisconsin - Madison, USA
Le Centre Scientifique et Technique du Batiment, Sophia Antipolis, France
           Transsolar Energietechnik GmBH, Stuttgart, Germany
        Thermal Energy System Specialists, LLC, Madison Wisconsin, USA

                           Release 17.02.0004

Simulation log for: "D:\Git\100_HausDerMusik\Andi\TRNSYS\160903 1257 HdM.dck"
 
*** Notice at time        :         0.000000
    Generated by Unit     : Not applicable or not available
    Generated by Type     : Not applicable or not available
    Message               : The TRNSYS Executable (TRNExe.exe) and main DLL (TRNDll.dll) are located in "C:\Trnsys17\Exe"
 
*** Fatal Error at time   :         0.000000
    Generated by Unit     : Not applicable or not available
    Generated by Type     : Not applicable or not available
    TRNSYS Message     15 : The referenced EQUATION name was previously defined in the TRNSYS input file. All TRNSYS EQUATION names must be unique. Please modify the EQUATION name and re-run the simulation
    Reported information  : FULL_LOAD_CAP_HEAT_K
 
*** Warning at time       :         0.000000
    Generated by Unit     : Not applicable or not available
    Generated by Type     : Not applicable or not available
    TRNSYS Message     87 : The TRNSYS Processor recognized the keyword VARIANT after the UNIT-TYPE statement, but no number was recognized.
    Reported information  : Not available
 
*** Simulation stopped with errors
    Total Notices         :         1
    Total Warnings        :         1
    Total Fatal Errors    :         1
